# File generated by Flopy version 3.8.2 on 04/10/2025 at 21:27:18.
BEGIN options
  BUDGET  FILEOUT  example_model.cbc
  HEAD  FILEOUT  example_model.hds
END options

BEGIN period  1
  SAVE  HEAD  ALL
  SAVE  BUDGET  ALL
  PRINT  HEAD  ALL
  PRINT  BUDGET  ALL
END period  1

