# File generated by Flopy version 3.8.2 on 04/10/2025 at 21:27:18.
BEGIN options
  SAVE_FLOWS
END options

BEGIN packages
  DIS6  example_model.dis  dis
  IC6  example_model.ic  ic
  NPF6  example_model.npf  npf
  WEL6  example_model.wel  wel_0
  RIV6  example_model.riv  riv_0
  DRN6  example_model.drn  drn_0
  CHD6  example_model.chd  chd_0
  OC6  example_model.oc  oc
END packages

