# File generated by Flopy version 3.8.2 on 04/10/2025 at 21:27:18.
BEGIN options
END options

BEGIN dimensions
  MAXBOUND  1
END dimensions

BEGIN period  1
  1.00000000E+00 5.00000000E-01
END period  1

