# File generated by Flopy version 3.8.2 on 04/10/2025 at 21:27:18.
BEGIN options
  PRINT_OPTION  summary
END options

