# File generated by Flopy version 3.8.2 on 04/10/2025 at 21:27:18.
BEGIN options
END options

BEGIN dimensions
  MAXBOUND  2
END dimensions

BEGIN period  1
  0
  4
END period  1

