# File generated by Flopy version 3.8.2 on 04/10/2025 at 21:27:18.
BEGIN options
  LENGTH_UNITS  meters
END options

BEGIN dimensions
  NLAY  1
  NROW  3
  NCOL  3
END dimensions

BEGIN griddata
  delr
    CONSTANT      10.00000000
  delc
    CONSTANT      10.00000000
  top
    CONSTANT      10.00000000
  botm
    CONSTANT       0.00000000
END griddata

