# File generated by Flopy version 3.8.2 on 04/10/2025 at 21:27:18.
BEGIN options
END options

BEGIN timing
  TDIS6  example_model.tdis
END timing

BEGIN models
  gwf6  example_model.nam  example_model
END models

BEGIN exchanges
END exchanges

BEGIN solutiongroup  1
  ims6  example_model.ims  example_model
END solutiongroup  1

