# MPSIM package for MODPATH 7 generated by Flopy 3.8.2
wimsaquifmp7.mpnam
wimsaquifmp7.mplst
2 1 1 1 0 0
wimsaquifmp7.mpend
wimsaquifmp7.mppth
0
2
1 1 0
2
1
1
1
PG1
1
0.0
EXTERNAL PG1.ptcls
