# Name file for MODPATH 7, generated by Flopy version 3.8.2.
MPBAS      wimsaquifmp7.mpbas
GRBDIS     ../GWF/wimsaquifGwf.dis.grb
TDIS       ../GWF/wimsaquif.tdis
HEAD       ../SIM/wimsaquifGwf.hds
BUDGET     ../SIM/wimsaquifGwf.cbc
