# File generated by Flopy version 3.3.3 on 05/23/2021 at 20:08:28.
BEGIN options
END options

BEGIN timing
  TDIS6  tutorial01b.tdis
END timing

BEGIN models
  gwf6  tutorial01b.nam  tutorial01b
END models

BEGIN exchanges
END exchanges

BEGIN solutiongroup  1
  ims6  tutorial01b.ims  tutorial01b
END solutiongroup  1

