# File generated by Flopy version 3.3.3 on 05/23/2021 at 20:08:28.
BEGIN options
  SAVE_FLOWS
  TS6  FILEIN  Q_well.ts
END options

BEGIN dimensions
  MAXBOUND  1
END dimensions

BEGIN period  1
  1 26 26  Qwell
END period  1

