# File generated by Flopy version 3.3.3 on 05/23/2021 at 20:08:28.
BEGIN options
  READASARRAYS
  SAVE_FLOWS
  TAS6  FILEIN  KNMI_Rotterdam.tas
END options

BEGIN period  1
  recharge  timearrayseries KNMI_Rotterdam
END period  1

