# File generated by Flopy version 3.3.3 on 05/23/2021 at 20:08:28.
BEGIN options
END options

BEGIN packages
  DIS6  tutorial01b.dis  dis
  STO6  tutorial01b.sto  sto
  IC6  tutorial01b.ic  ic
  NPF6  tutorial01b.npf  npf
  CHD6  tutorial01b.chd  chd_0
  WEL6  tutorial01b.wel  wel_0
  RCH6  tutorial01b.rcha  rcha
  OC6  tutorial01b.oc  oc
END packages

