# File generated by Flopy version 3.3.3 on 05/23/2021 at 20:08:28.
BEGIN options
  SAVE_FLOWS
  STORAGECOEFFICIENT
END options

BEGIN griddata
  iconvert
    CONSTANT  1
  ss
    CONSTANT  1.00000000E-05
  sy
    CONSTANT       0.15000000
END griddata

BEGIN period  1
END period  1

