# File generated by Flopy version 3.3.3 on 05/23/2021 at 20:08:28.
BEGIN options
  BUDGET  FILEOUT  tutorial01b.cbb
  HEAD  FILEOUT  tutorial01b.hds
END options

BEGIN period  1
  SAVE  HEAD  ALL
  SAVE  BUDGET  ALL
  PRINT  HEAD  LAST
END period  1

