# File generated by Flopy version 3.3.3 on 05/23/2021 at 20:08:28.
BEGIN options
  COMPLEXITY  simple
END options

