# File generated by Flopy version 3.3.3 on 05/23/2021 at 20:08:28.
BEGIN options
  TIME_UNITS  days
  START_DATE_TIME  '2021-05-22 18:00'
END options

BEGIN dimensions
  NPER  1
END dimensions

BEGIN perioddata
      20.00000000  100       1.00000000
END perioddata

