# File generated by Flopy version 3.3.3 on 05/23/2021 at 20:08:28.
BEGIN options
  SAVE_FLOWS
END options

BEGIN griddata
  icelltype
    CONSTANT  1
  k
    CONSTANT     600.00000000
END griddata

