# File generated by Flopy version 3.3.3 on 05/23/2021 at 20:08:28.
BEGIN options
  SAVE_FLOWS
END options

BEGIN dimensions
  MAXBOUND  396
END dimensions

BEGIN period  1
  1 1 1       0.00000000
  1 100 1       0.00000000
  1 1 2       0.00000000
  1 100 2       0.00000000
  1 1 3       0.00000000
  1 100 3       0.00000000
  1 1 4       0.00000000
  1 100 4       0.00000000
  1 1 5       0.00000000
  1 100 5       0.00000000
  1 1 6       0.00000000
  1 100 6       0.00000000
  1 1 7       0.00000000
  1 100 7       0.00000000
  1 1 8       0.00000000
  1 100 8       0.00000000
  1 1 9       0.00000000
  1 100 9       0.00000000
  1 1 10       0.00000000
  1 100 10       0.00000000
  1 1 11       0.00000000
  1 100 11       0.00000000
  1 1 12       0.00000000
  1 100 12       0.00000000
  1 1 13       0.00000000
  1 100 13       0.00000000
  1 1 14       0.00000000
  1 100 14       0.00000000
  1 1 15       0.00000000
  1 100 15       0.00000000
  1 1 16       0.00000000
  1 100 16       0.00000000
  1 1 17       0.00000000
  1 100 17       0.00000000
  1 1 18       0.00000000
  1 100 18       0.00000000
  1 1 19       0.00000000
  1 100 19       0.00000000
  1 1 20       0.00000000
  1 100 20       0.00000000
  1 1 21       0.00000000
  1 100 21       0.00000000
  1 1 22       0.00000000
  1 100 22       0.00000000
  1 1 23       0.00000000
  1 100 23       0.00000000
  1 1 24       0.00000000
  1 100 24       0.00000000
  1 1 25       0.00000000
  1 100 25       0.00000000
  1 1 26       0.00000000
  1 100 26       0.00000000
  1 1 27       0.00000000
  1 100 27       0.00000000
  1 1 28       0.00000000
  1 100 28       0.00000000
  1 1 29       0.00000000
  1 100 29       0.00000000
  1 1 30       0.00000000
  1 100 30       0.00000000
  1 1 31       0.00000000
  1 100 31       0.00000000
  1 1 32       0.00000000
  1 100 32       0.00000000
  1 1 33       0.00000000
  1 100 33       0.00000000
  1 1 34       0.00000000
  1 100 34       0.00000000
  1 1 35       0.00000000
  1 100 35       0.00000000
  1 1 36       0.00000000
  1 100 36       0.00000000
  1 1 37       0.00000000
  1 100 37       0.00000000
  1 1 38       0.00000000
  1 100 38       0.00000000
  1 1 39       0.00000000
  1 100 39       0.00000000
  1 1 40       0.00000000
  1 100 40       0.00000000
  1 1 41       0.00000000
  1 100 41       0.00000000
  1 1 42       0.00000000
  1 100 42       0.00000000
  1 1 43       0.00000000
  1 100 43       0.00000000
  1 1 44       0.00000000
  1 100 44       0.00000000
  1 1 45       0.00000000
  1 100 45       0.00000000
  1 1 46       0.00000000
  1 100 46       0.00000000
  1 1 47       0.00000000
  1 100 47       0.00000000
  1 1 48       0.00000000
  1 100 48       0.00000000
  1 1 49       0.00000000
  1 100 49       0.00000000
  1 1 50       0.00000000
  1 100 50       0.00000000
  1 1 51       0.00000000
  1 100 51       0.00000000
  1 1 52       0.00000000
  1 100 52       0.00000000
  1 1 53       0.00000000
  1 100 53       0.00000000
  1 1 54       0.00000000
  1 100 54       0.00000000
  1 1 55       0.00000000
  1 100 55       0.00000000
  1 1 56       0.00000000
  1 100 56       0.00000000
  1 1 57       0.00000000
  1 100 57       0.00000000
  1 1 58       0.00000000
  1 100 58       0.00000000
  1 1 59       0.00000000
  1 100 59       0.00000000
  1 1 60       0.00000000
  1 100 60       0.00000000
  1 1 61       0.00000000
  1 100 61       0.00000000
  1 1 62       0.00000000
  1 100 62       0.00000000
  1 1 63       0.00000000
  1 100 63       0.00000000
  1 1 64       0.00000000
  1 100 64       0.00000000
  1 1 65       0.00000000
  1 100 65       0.00000000
  1 1 66       0.00000000
  1 100 66       0.00000000
  1 1 67       0.00000000
  1 100 67       0.00000000
  1 1 68       0.00000000
  1 100 68       0.00000000
  1 1 69       0.00000000
  1 100 69       0.00000000
  1 1 70       0.00000000
  1 100 70       0.00000000
  1 1 71       0.00000000
  1 100 71       0.00000000
  1 1 72       0.00000000
  1 100 72       0.00000000
  1 1 73       0.00000000
  1 100 73       0.00000000
  1 1 74       0.00000000
  1 100 74       0.00000000
  1 1 75       0.00000000
  1 100 75       0.00000000
  1 1 76       0.00000000
  1 100 76       0.00000000
  1 1 77       0.00000000
  1 100 77       0.00000000
  1 1 78       0.00000000
  1 100 78       0.00000000
  1 1 79       0.00000000
  1 100 79       0.00000000
  1 1 80       0.00000000
  1 100 80       0.00000000
  1 1 81       0.00000000
  1 100 81       0.00000000
  1 1 82       0.00000000
  1 100 82       0.00000000
  1 1 83       0.00000000
  1 100 83       0.00000000
  1 1 84       0.00000000
  1 100 84       0.00000000
  1 1 85       0.00000000
  1 100 85       0.00000000
  1 1 86       0.00000000
  1 100 86       0.00000000
  1 1 87       0.00000000
  1 100 87       0.00000000
  1 1 88       0.00000000
  1 100 88       0.00000000
  1 1 89       0.00000000
  1 100 89       0.00000000
  1 1 90       0.00000000
  1 100 90       0.00000000
  1 1 91       0.00000000
  1 100 91       0.00000000
  1 1 92       0.00000000
  1 100 92       0.00000000
  1 1 93       0.00000000
  1 100 93       0.00000000
  1 1 94       0.00000000
  1 100 94       0.00000000
  1 1 95       0.00000000
  1 100 95       0.00000000
  1 1 96       0.00000000
  1 100 96       0.00000000
  1 1 97       0.00000000
  1 100 97       0.00000000
  1 1 98       0.00000000
  1 100 98       0.00000000
  1 1 99       0.00000000
  1 100 99       0.00000000
  1 1 100       0.00000000
  1 100 100       0.00000000
  1 2 1       0.00000000
  1 2 100       0.00000000
  1 3 1       0.00000000
  1 3 100       0.00000000
  1 4 1       0.00000000
  1 4 100       0.00000000
  1 5 1       0.00000000
  1 5 100       0.00000000
  1 6 1       0.00000000
  1 6 100       0.00000000
  1 7 1       0.00000000
  1 7 100       0.00000000
  1 8 1       0.00000000
  1 8 100       0.00000000
  1 9 1       0.00000000
  1 9 100       0.00000000
  1 10 1       0.00000000
  1 10 100       0.00000000
  1 11 1       0.00000000
  1 11 100       0.00000000
  1 12 1       0.00000000
  1 12 100       0.00000000
  1 13 1       0.00000000
  1 13 100       0.00000000
  1 14 1       0.00000000
  1 14 100       0.00000000
  1 15 1       0.00000000
  1 15 100       0.00000000
  1 16 1       0.00000000
  1 16 100       0.00000000
  1 17 1       0.00000000
  1 17 100       0.00000000
  1 18 1       0.00000000
  1 18 100       0.00000000
  1 19 1       0.00000000
  1 19 100       0.00000000
  1 20 1       0.00000000
  1 20 100       0.00000000
  1 21 1       0.00000000
  1 21 100       0.00000000
  1 22 1       0.00000000
  1 22 100       0.00000000
  1 23 1       0.00000000
  1 23 100       0.00000000
  1 24 1       0.00000000
  1 24 100       0.00000000
  1 25 1       0.00000000
  1 25 100       0.00000000
  1 26 1       0.00000000
  1 26 100       0.00000000
  1 27 1       0.00000000
  1 27 100       0.00000000
  1 28 1       0.00000000
  1 28 100       0.00000000
  1 29 1       0.00000000
  1 29 100       0.00000000
  1 30 1       0.00000000
  1 30 100       0.00000000
  1 31 1       0.00000000
  1 31 100       0.00000000
  1 32 1       0.00000000
  1 32 100       0.00000000
  1 33 1       0.00000000
  1 33 100       0.00000000
  1 34 1       0.00000000
  1 34 100       0.00000000
  1 35 1       0.00000000
  1 35 100       0.00000000
  1 36 1       0.00000000
  1 36 100       0.00000000
  1 37 1       0.00000000
  1 37 100       0.00000000
  1 38 1       0.00000000
  1 38 100       0.00000000
  1 39 1       0.00000000
  1 39 100       0.00000000
  1 40 1       0.00000000
  1 40 100       0.00000000
  1 41 1       0.00000000
  1 41 100       0.00000000
  1 42 1       0.00000000
  1 42 100       0.00000000
  1 43 1       0.00000000
  1 43 100       0.00000000
  1 44 1       0.00000000
  1 44 100       0.00000000
  1 45 1       0.00000000
  1 45 100       0.00000000
  1 46 1       0.00000000
  1 46 100       0.00000000
  1 47 1       0.00000000
  1 47 100       0.00000000
  1 48 1       0.00000000
  1 48 100       0.00000000
  1 49 1       0.00000000
  1 49 100       0.00000000
  1 50 1       0.00000000
  1 50 100       0.00000000
  1 51 1       0.00000000
  1 51 100       0.00000000
  1 52 1       0.00000000
  1 52 100       0.00000000
  1 53 1       0.00000000
  1 53 100       0.00000000
  1 54 1       0.00000000
  1 54 100       0.00000000
  1 55 1       0.00000000
  1 55 100       0.00000000
  1 56 1       0.00000000
  1 56 100       0.00000000
  1 57 1       0.00000000
  1 57 100       0.00000000
  1 58 1       0.00000000
  1 58 100       0.00000000
  1 59 1       0.00000000
  1 59 100       0.00000000
  1 60 1       0.00000000
  1 60 100       0.00000000
  1 61 1       0.00000000
  1 61 100       0.00000000
  1 62 1       0.00000000
  1 62 100       0.00000000
  1 63 1       0.00000000
  1 63 100       0.00000000
  1 64 1       0.00000000
  1 64 100       0.00000000
  1 65 1       0.00000000
  1 65 100       0.00000000
  1 66 1       0.00000000
  1 66 100       0.00000000
  1 67 1       0.00000000
  1 67 100       0.00000000
  1 68 1       0.00000000
  1 68 100       0.00000000
  1 69 1       0.00000000
  1 69 100       0.00000000
  1 70 1       0.00000000
  1 70 100       0.00000000
  1 71 1       0.00000000
  1 71 100       0.00000000
  1 72 1       0.00000000
  1 72 100       0.00000000
  1 73 1       0.00000000
  1 73 100       0.00000000
  1 74 1       0.00000000
  1 74 100       0.00000000
  1 75 1       0.00000000
  1 75 100       0.00000000
  1 76 1       0.00000000
  1 76 100       0.00000000
  1 77 1       0.00000000
  1 77 100       0.00000000
  1 78 1       0.00000000
  1 78 100       0.00000000
  1 79 1       0.00000000
  1 79 100       0.00000000
  1 80 1       0.00000000
  1 80 100       0.00000000
  1 81 1       0.00000000
  1 81 100       0.00000000
  1 82 1       0.00000000
  1 82 100       0.00000000
  1 83 1       0.00000000
  1 83 100       0.00000000
  1 84 1       0.00000000
  1 84 100       0.00000000
  1 85 1       0.00000000
  1 85 100       0.00000000
  1 86 1       0.00000000
  1 86 100       0.00000000
  1 87 1       0.00000000
  1 87 100       0.00000000
  1 88 1       0.00000000
  1 88 100       0.00000000
  1 89 1       0.00000000
  1 89 100       0.00000000
  1 90 1       0.00000000
  1 90 100       0.00000000
  1 91 1       0.00000000
  1 91 100       0.00000000
  1 92 1       0.00000000
  1 92 100       0.00000000
  1 93 1       0.00000000
  1 93 100       0.00000000
  1 94 1       0.00000000
  1 94 100       0.00000000
  1 95 1       0.00000000
  1 95 100       0.00000000
  1 96 1       0.00000000
  1 96 100       0.00000000
  1 97 1       0.00000000
  1 97 100       0.00000000
  1 98 1       0.00000000
  1 98 100       0.00000000
  1 99 1       0.00000000
  1 99 100       0.00000000
END period  1

